results/2026-03-13/bilevel_comparisons_single_period/solution_bus_motivation_c_efficiency.csv
bus_id,vm_avg,z_voltage
1,1.0115019653991737,1.0
2,1.0115019773584988,1.0
3,1.0114362005275952,1.0
4,1.0116410811196734,1.0
5,0.0,0.0
6,1.03,1.0
7,1.0118280326308402,1.0
8,1.0139158214579094,1.0
9,1.0139158214579094,1.0
10,1.0139158214579094,1.0
11,1.011670673815081,1.0
12,0.0,0.0
13,1.0115019653991737,1.0
14,1.0131811817100462,1.0
15,0.0,0.0
16,1.0139158214579094,1.0
17,1.0118280326308402,1.0
18,1.0115019653991737,1.0
19,1.0139158214579094,1.0
20,0.0,0.0
